*Heading
** Job name: Co-execution-1-Std Model name: Std
** Generated by: Abaqus/CAE 6.14-4
*Preprint, echo=NO, model=NO, history=NO, contact=NO
**
** PARTS
**
*Part, name=Part-1
*Node
      1, -0.342020154,  0.939692616,           0.
      2, -0.642787635,  0.766044438,           0.
      3, -0.866025388,          0.5,           0.
      4,  -0.98480773,  0.173648179,           0.
      5, -0.866025388,         -0.5,           0.
      6, -0.642787635, -0.766044438,           0.
      7, -0.342020154, -0.939692616,           0.
      8,           0.,          -1.,           0.
      9,  0.342020154, -0.939692616,           0.
     10,  0.642787635, -0.766044438,           0.
     11,  0.866025388,         -0.5,           0.
     12,   0.98480773, -0.173648179,           0.
     13,  0.866025388,          0.5,           0.
     14,  0.642787635,  0.766044438,           0.
     15,  0.342020154,  0.939692616,           0.
     16,           0.,           1.,           0.
     17, -0.338079065,   1.15139163,           0.
     18, -0.906899512,  0.785832882,           0.
     19,  -1.09155834,  0.498498023,           0.
     20,  -1.18778574,  0.170777813,           0.
** ... 1420 like lines cut
*Element, type=C3D8R
  1,   65,   81,   64,   49,   17,   33,   16,    1
  2,   49,   50,   84,   65,    1,    2,   36,   17
  3,   66,   84,   50,   51,   18,   36,    2,    3
  4,   67,   66,   51,   89,   19,   18,    3,   41
  5,   89,   51,   52,   90,   41,    3,    4,   42
  6,   70,   53,   54,   71,   22,    5,    6,   23
  7,   71,   54,   55,   72,   23,    6,    7,   24
  8,   72,   55,   56,   86,   24,    7,    8,   38
  9,   56,   57,   73,   86,    8,    9,   25,   38
 10,   57,   58,   74,   73,    9,   10,   26,   25
 11,   58,   59,   75,   74,   10,   11,   27,   26
 12,   60,   83,   92,   93,   12,   35,   44,   45
 13,   79,   61,   62,   88,   31,   13,   14,   40
 14,   88,   62,   63,   80,   40,   14,   15,   32
 15,   80,   63,   64,   81,   32,   15,   16,   33
 16,   79,   78,   91,   61,   31,   30,   43,   13
 17,   76,   87,   94,   93,   28,   39,   46,   45
 18,   70,   85,   95,   53,   22,   37,   47,    5
 19,   52,   82,   96,   90,    4,   34,   48,   42
 20,   92,   91,   78,   77,   44,   43,   30,   29
** ... 792 like lines cut
*Nset, nset=_PickedSet3, internal, generate
    1,  1440,     1
*Elset, elset=_PickedSet3, internal, generate
   1,  812,    1
** Section: Section-1
*Solid Section, elset=_PickedSet3, material=Steel
,
*End Part
**  
**
** ASSEMBLY
**
*Assembly, name=Assembly
**  
*Instance, name=Part-1-1, part=Part-1
*End Instance
**  
*Nset, nset=_PickedSet5, internal, instance=Part-1-1
    1,    2,    3,    4,    5,    6,    7,    8,    9,   10,   11,   12,   13,   14,   15,   16
   17,   18,   19,   20,   21,   22,   23,   24,   25,   26,   27,   28,   29,   30,   31,   32
   33,   34,   35,   36,   37,   38,   39,   40,   41,   42,   43,   44,   45,   46,   47,   48
 1393, 1394, 1395, 1396, 1397, 1398, 1399, 1400, 1401, 1402, 1403, 1404, 1405, 1406, 1407, 1408
 1409, 1410, 1411, 1412, 1413, 1414, 1415, 1416, 1417, 1418, 1419, 1420, 1421, 1422, 1423, 1424
 1425, 1426, 1427, 1428, 1429, 1430, 1431, 1432, 1433, 1434, 1435, 1436, 1437, 1438, 1439, 1440
*Elset, elset=_PickedSet5, internal, instance=Part-1-1
   1,   2,   3,   4,   5,   6,   7,   8,   9,  10,  11,  12,  13,  14,  15,  16
  17,  18,  19,  20,  21,  22,  23,  24,  25,  26,  27,  28, 785, 786, 787, 788
 789, 790, 791, 792, 793, 794, 795, 796, 797, 798, 799, 800, 801, 802, 803, 804
 805, 806, 807, 808, 809, 810, 811, 812
*Elset, elset=__PickedSurf4_S5, internal, instance=Part-1-1
   1,   3,  29,  31,  57,  59,  85,  87, 113, 115, 141, 143, 169, 171, 197, 199
 225, 227, 253, 255, 281, 283, 309, 311, 337, 339, 365, 367, 393, 395, 421, 423
 449, 451, 477, 479, 505, 507, 533, 535, 561, 563, 589, 591, 617, 619, 645, 647
 673, 675, 701, 703, 729, 731, 757, 759, 785, 787
*Elset, elset=__PickedSurf4_S3, internal, instance=Part-1-1
   2,   9,  10,  11,  12,  19,  30,  37,  38,  39,  40,  47,  58,  65,  66,  67
  68,  75,  86,  93,  94,  95,  96, 103, 114, 121, 122, 123, 124, 131, 142, 149
 150, 151, 152, 159, 170, 177, 178, 179, 180, 187, 198, 205, 206, 207, 208, 215
 226, 233, 234, 235, 236, 243, 254, 261, 262, 263, 264, 271, 282, 289, 290, 291
 292, 299, 310, 317, 318, 319, 320, 327, 338, 345, 346, 347, 348, 355, 366, 373
 374, 375, 376, 383, 394, 401, 402, 403, 404, 411, 422, 429, 430, 431, 432, 439
 450, 457, 458, 459, 460, 467, 478, 485, 486, 487, 488, 495, 506, 513, 514, 515
 516, 523, 534, 541, 542, 543, 544, 551, 562, 569, 570, 571, 572, 579, 590, 597
 598, 599, 600, 607, 618, 625, 626, 627, 628, 635, 646, 653, 654, 655, 656, 663
 674, 681, 682, 683, 684, 691, 702, 709, 710, 711, 712, 719, 730, 737, 738, 739
 740, 747, 758, 765, 766, 767, 768, 775, 786, 793, 794, 795, 796, 803
*Elset, elset=__PickedSurf4_S4, internal, instance=Part-1-1
   5,   6,   7,   8,  13,  14,  15,  23,  33,  34,  35,  36,  41,  42,  43,  51
  61,  62,  63,  64,  69,  70,  71,  79,  89,  90,  91,  92,  97,  98,  99, 107
 117, 118, 119, 120, 125, 126, 127, 135, 145, 146, 147, 148, 153, 154, 155, 163
 173, 174, 175, 176, 181, 182, 183, 191, 201, 202, 203, 204, 209, 210, 211, 219
 229, 230, 231, 232, 237, 238, 239, 247, 257, 258, 259, 260, 265, 266, 267, 275
 285, 286, 287, 288, 293, 294, 295, 303, 313, 314, 315, 316, 321, 322, 323, 331
 341, 342, 343, 344, 349, 350, 351, 359, 369, 370, 371, 372, 377, 378, 379, 387
 397, 398, 399, 400, 405, 406, 407, 415, 425, 426, 427, 428, 433, 434, 435, 443
 453, 454, 455, 456, 461, 462, 463, 471, 481, 482, 483, 484, 489, 490, 491, 499
 509, 510, 511, 512, 517, 518, 519, 527, 537, 538, 539, 540, 545, 546, 547, 555
 565, 566, 567, 568, 573, 574, 575, 583, 593, 594, 595, 596, 601, 602, 603, 611
 621, 622, 623, 624, 629, 630, 631, 639, 649, 650, 651, 652, 657, 658, 659, 667
 677, 678, 679, 680, 685, 686, 687, 695, 705, 706, 707, 708, 713, 714, 715, 723
 733, 734, 735, 736, 741, 742, 743, 751, 761, 762, 763, 764, 769, 770, 771, 779
 789, 790, 791, 792, 797, 798, 799, 807
*Elset, elset=__PickedSurf4_S6, internal, instance=Part-1-1
  25,  27,  53,  55,  81,  83, 109, 111, 137, 139, 165, 167, 193, 195, 221, 223
 249, 251, 277, 279, 305, 307, 333, 335, 361, 363, 389, 391, 417, 419, 445, 447
 473, 475, 501, 503, 529, 531, 557, 559, 585, 587, 613, 615, 641, 643, 669, 671
 697, 699, 725, 727, 753, 755, 781, 783, 809, 811
*Surface, type=ELEMENT, name=_PickedSurf4, internal
__PickedSurf4_S5, S5
__PickedSurf4_S3, S3
__PickedSurf4_S4, S4
__PickedSurf4_S6, S6
*End Assembly
** 
** MATERIALS
** 
*Material, name=Steel
*Density
 7.9e-09,
*Elastic
200000., 0.3
** ----------------------------------------------------------------
** 
** STEP: Step-1
** 
*Step, name=Step-1, nlgeom=YES, inc=10000
*Dynamic
0.01,0.2,1e-09
** 
** BOUNDARY CONDITIONS
** 
** Name: BC-1 Type: Displacement/Rotation
*Boundary
_PickedSet5, 1, 1
_PickedSet5, 2, 2
_PickedSet5, 3, 3
** Interaction: Int-1
*Co-simulation, name=Int-1, program=MULTIPHYSICS
*Co-simulation Region, import, type=SURFACE
_PickedSurf4, CF
_PickedSurf4, LUMPEDMASS
*Co-simulation Region, export, type=SURFACE
_PickedSurf4, U
_PickedSurf4, V
** 
** OUTPUT REQUESTS
** 
*Restart, write, frequency=0
** 
** FIELD OUTPUT: F-Output-1
** 
*Output, field, variable=PRESELECT
** 
** HISTORY OUTPUT: H-Output-1
** 
*Output, history, variable=PRESELECT
*End Step
