*Heading
** Job name: Co-execution-1-CFD Model name: CFD
** Generated by: Abaqus/CAE 6.14-4
*Preprint, echo=NO, model=NO, history=NO, contact=NO
**
** PARTS
**
*Part, name=Part-1
*Node
      1, -0.281732559,  0.959492981,           0.
      2, -0.755749583,  0.654860735,           0.
      3, -0.909631968,  0.415415019,           0.
      4, -0.989821434, -0.142314836,           0.
      5, -0.909631968, -0.415415019,           0.
      6, -0.755749583, -0.654860735,           0.
      7, -0.281732559, -0.959492981,           0.
      8,           0.,          -1.,           0.
      9,  0.281732559, -0.959492981,           0.
     10,  0.755749583, -0.654860735,           0.
     11,  0.909631968, -0.415415019,           0.
     12,  0.989821434,  0.142314836,           0.
     13,  0.909631968,  0.415415019,           0.
     14,  0.755749583,  0.654860735,           0.
     15,  0.281732559,  0.959492981,           0.
     16,           0.,           1.,           0.
     17, -0.540640831,  0.841253519,           0.
     18, -0.989821434,  0.142314836,           0.
     19, -0.540640831, -0.841253519,           0.
     20,  0.540640831, -0.841253519,           0.
** ... 2607 like lines cut
*Element, type=FC3D8
   1,   94,   87,   86,   96,   23,   16,   15,   25
   2,  108,   95,   88,   72,   37,   24,   17,    1
   3,   96,   86,   93,  113,   25,   15,   22,   42
   4,  113,   97,  132,  114,   42,   26,   61,   43
   5,  132,  116,  124,  114,   61,   45,   53,   43
   6,  114,  124,  123,  131,   43,   53,   52,   60
   7,  116,  133,  118,  127,   45,   62,   47,   56
   8,  101,  111,  135,  120,   30,   40,   64,   49
   9,  110,  128,  137,  119,   39,   57,   66,   48
  10,  142,  127,  120,  135,   71,   56,   49,   64
  11,   76,  105,  104,   77,    5,   34,   33,    6
  12,   73,   88,   95,  107,    2,   17,   24,   36
  13,   87,   94,  108,   72,   16,   23,   37,    1
  14,   96,  131,  123,   94,   25,   60,   52,   23
  15,  122,  108,   94,  123,   51,   37,   23,   52
  16,   98,   99,  133,  116,   27,   28,   62,   45
  17,   79,  103,  102,   80,    8,   32,   31,    9
  18,  113,   93,   85,   97,   42,   22,   14,   26
  19,  107,   95,  130,  115,   36,   24,   59,   44
  20,   97,   85,   84,   98,   26,   14,   13,   27
** ... 2104 like lines cut
*Nset, nset=_PickedSet3, internal, generate
    1,  2627,     1
*Elset, elset=_PickedSet3, internal, generate
    1,  2124,     1
** Section: Section-1
*Fluid Section, type=SINGLE FLUID, elset=_PickedSet3
water,
*End Part
**  
**
** ASSEMBLY
**
*Assembly, name=Assembly
**  
*Instance, name=Part-1-1, part=Part-1
*End Instance
**  
*Nset, nset=_PickedSet7, internal, instance=Part-1-1
    1,    2,    3,    4,    5,    6,    7,    8,    9,   10,   11,   12,   13,   14,   15,   16
   17,   18,   19,   20,   21,   22,   23,   24,   25,   26,   27,   28,   29,   30,   31,   32
   33,   34,   35,   36,   37,   38,   39,   40,   41,   42,   43,   44,   45,   46,   47,   48
   49,   50,   51,   52,   53,   54,   55,   56,   57,   58,   59,   60,   61,   62,   63,   64
   65,   66,   67,   68,   69,   70,   71, 2557, 2558, 2559, 2560, 2561, 2562, 2563, 2564, 2565
 2566, 2567, 2568, 2569, 2570, 2571, 2572, 2573, 2574, 2575, 2576, 2577, 2578, 2579, 2580, 2581
 2582, 2583, 2584, 2585, 2586, 2587, 2588, 2589, 2590, 2591, 2592, 2593, 2594, 2595, 2596, 2597
 2598, 2599, 2600, 2601, 2602, 2603, 2604, 2605, 2606, 2607, 2608, 2609, 2610, 2611, 2612, 2613
 2614, 2615, 2616, 2617, 2618, 2619, 2620, 2621, 2622, 2623, 2624, 2625, 2626, 2627
*Elset, elset=_PickedSet7, internal, instance=Part-1-1
    1,    2,    3,    4,    5,    6,    7,    8,    9,   10,   11,   12,   13,   14,   15,   16
   17,   18,   19,   20,   21,   22,   23,   24,   25,   26,   27,   28,   29,   30,   31,   32
   33,   34,   35,   36,   37,   38,   39,   40,   41,   42,   43,   44,   45,   46,   47,   48
   49,   50,   51,   52,   53,   54,   55,   56,   57,   58,   59, 2066, 2067, 2068, 2069, 2070
 2071, 2072, 2073, 2074, 2075, 2076, 2077, 2078, 2079, 2080, 2081, 2082, 2083, 2084, 2085, 2086
 2087, 2088, 2089, 2090, 2091, 2092, 2093, 2094, 2095, 2096, 2097, 2098, 2099, 2100, 2101, 2102
 2103, 2104, 2105, 2106, 2107, 2108, 2109, 2110, 2111, 2112, 2113, 2114, 2115, 2116, 2117, 2118
 2119, 2120, 2121, 2122, 2123, 2124
*Elset, elset=__PickedSurf4_S4, internal, instance=Part-1-1
    1,    3,   18,   20,   21,   22,   23,   24,   25,   26,   27,   28,   29,   30,   50,   60
   62,   77,   79,   80,   81,   82,   83,   84,   85,   86,   87,   88,   89,  109,  119,  121
  136,  138,  139,  140,  141,  142,  143,  144,  145,  146,  147,  148,  168,  178,  180,  195
  197,  198,  199,  200,  201,  202,  203,  204,  205,  206,  207,  227,  237,  239,  254,  256
  257,  258,  259,  260,  261,  262,  263,  264,  265,  266,  286,  296,  298,  313,  315,  316
  317,  318,  319,  320,  321,  322,  323,  324,  325,  345,  355,  357,  372,  374,  375,  376
  377,  378,  379,  380,  381,  382,  383,  384,  404,  414,  416,  431,  433,  434,  435,  436
  437,  438,  439,  440,  441,  442,  443,  463,  473,  475,  490,  492,  493,  494,  495,  496
  497,  498,  499,  500,  501,  502,  522,  532,  534,  549,  551,  552,  553,  554,  555,  556
  557,  558,  559,  560,  561,  581,  591,  593,  608,  610,  611,  612,  613,  614,  615,  616
  617,  618,  619,  620,  640,  650,  652,  667,  669,  670,  671,  672,  673,  674,  675,  676
  677,  678,  679,  699,  709,  711,  726,  728,  729,  730,  731,  732,  733,  734,  735,  736
  737,  738,  758,  768,  770,  785,  787,  788,  789,  790,  791,  792,  793,  794,  795,  796
  797,  817,  827,  829,  844,  846,  847,  848,  849,  850,  851,  852,  853,  854,  855,  856
  876,  886,  888,  903,  905,  906,  907,  908,  909,  910,  911,  912,  913,  914,  915,  935
  945,  947,  962,  964,  965,  966,  967,  968,  969,  970,  971,  972,  973,  974,  994, 1004
 1006, 1021, 1023, 1024, 1025, 1026, 1027, 1028, 1029, 1030, 1031, 1032, 1033, 1053, 1063, 1065
 1080, 1082, 1083, 1084, 1085, 1086, 1087, 1088, 1089, 1090, 1091, 1092, 1112, 1122, 1124, 1139
 1141, 1142, 1143, 1144, 1145, 1146, 1147, 1148, 1149, 1150, 1151, 1171, 1181, 1183, 1198, 1200
 1201, 1202, 1203, 1204, 1205, 1206, 1207, 1208, 1209, 1210, 1230, 1240, 1242, 1257, 1259, 1260
** ... 14 like lines cut
*Elset, elset=__PickedSurf4_S5, internal, instance=Part-1-1
    2,   33,   35,   61,   92,   94,  120,  151,  153,  179,  210,  212,  238,  269,  271,  297
  328,  330,  356,  387,  389,  415,  446,  448,  474,  505,  507,  533,  564,  566,  592,  623
  625,  651,  682,  684,  710,  741,  743,  769,  800,  802,  828,  859,  861,  887,  918,  920
  946,  977,  979, 1005, 1036, 1038, 1064, 1095, 1097, 1123, 1154, 1156, 1182, 1213, 1215, 1241
 1272, 1274, 1300, 1331, 1333, 1359, 1390, 1392, 1418, 1449, 1451, 1477, 1508, 1510, 1536, 1567
 1569, 1595, 1626, 1628, 1654, 1685, 1687, 1713, 1744, 1746, 1772, 1803, 1805, 1831, 1862, 1864
 1890, 1921, 1923, 1949, 1980, 1982, 2008, 2039, 2041, 2067, 2098, 2100
*Elset, elset=__PickedSurf4_S6, internal, instance=Part-1-1
   11,   13,   17,   70,   72,   76,  129,  131,  135,  188,  190,  194,  247,  249,  253,  306
  308,  312,  365,  367,  371,  424,  426,  430,  483,  485,  489,  542,  544,  548,  601,  603
  607,  660,  662,  666,  719,  721,  725,  778,  780,  784,  837,  839,  843,  896,  898,  902
  955,  957,  961, 1014, 1016, 1020, 1073, 1075, 1079, 1132, 1134, 1138, 1191, 1193, 1197, 1250
 1252, 1256, 1309, 1311, 1315, 1368, 1370, 1374, 1427, 1429, 1433, 1486, 1488, 1492, 1545, 1547
 1551, 1604, 1606, 1610, 1663, 1665, 1669, 1722, 1724, 1728, 1781, 1783, 1787, 1840, 1842, 1846
 1899, 1901, 1905, 1958, 1960, 1964, 2017, 2019, 2023, 2076, 2078, 2082
*Elset, elset=__PickedSurf4_S3, internal, instance=Part-1-1, generate
   12,  2077,    59
*Surface, type=ELEMENT, name=_PickedSurf4, internal
__PickedSurf4_S4, S4
__PickedSurf4_S5, S5
__PickedSurf4_S6, S6
__PickedSurf4_S3, S3
*Elset, elset=__PickedSurf5_S1, internal, instance=Part-1-1, generate
 2066,  2124,     1
*Surface, type=ELEMENT, name=_PickedSurf5, internal
__PickedSurf5_S1, S1
*Elset, elset=__PickedSurf6_S2, internal, instance=Part-1-1, generate
  1,  59,   1
*Surface, type=ELEMENT, name=_PickedSurf6, internal
__PickedSurf6_S2, S2
*End Assembly
** 
** MATERIALS
** 
*Material, name=water
*Density
 1e-09,
*Viscosity
 1e-05,
** ----------------------------------------------------------------
** 
** STEP: Step-1
** 
*Step, name=Step-1, nlgeom=NO
*CFD, incompressible navier stokes
0.01, 0.2, 0.025, 0.45, 1
1e-10, 0.5,  , 0.5, 0.5
*Momentum Equation Solver
500, 2, 1e-05
*Pressure Equation Solver
250, 2, 1e-05
ICC, 1, 1, CG
*Transport Equation Solver
500, 2, 1e-05
** 
** BOUNDARY CONDITIONS
** 
** Name: BC-1 Type: Fluid inlet/outlet
*Fluid Boundary, type=Surface
_PickedSurf5, P, 0.
** Name: BC-2 Type: Fluid inlet/outlet
*Fluid Boundary, type=Surface
_PickedSurf6, VELZ, 1.
** Name: BC-3 Type: Displacement/Rotation
*Boundary
_PickedSet7, 1, 1
_PickedSet7, 2, 2
_PickedSet7, 3, 3
** Interaction: Int-1
*Co-simulation, name=Int-1, program=MULTIPHYSICS
*Co-simulation Region, import, type=SURFACE
_PickedSurf4, U
_PickedSurf4, V
*Co-simulation Region, export, type=SURFACE
_PickedSurf4, LUMPEDMASS
_PickedSurf4, TRSHR
** 
** OUTPUT REQUESTS
** 
*Restart, write, frequency=0
** 
** FIELD OUTPUT: F-Output-1
** 
*Output, field, variable=PRESELECT
*Output, history, frequency=0
*End Step
