*Heading
** Job name: Job-2 Model name: Model-2
** Generated by: Abaqus/CAE 6.14-4
*Preprint, echo=NO, model=NO, history=NO, contact=NO
**
** PARTS
**
*Part, name=Part-1
*Node
      1, -0.433883727,   0.90096885,           0.
      2, -0.781831503,  0.623489797,           0.
      3, -0.974927902,  0.222520933,           0.
      4, -0.781831503, -0.623489797,           0.
      5, -0.433883727,  -0.90096885,           0.
      6,           0.,          -1.,           0.
      7,  0.433883727,  -0.90096885,           0.
      8,  0.781831503, -0.623489797,           0.
      9,  0.974927902, -0.222520933,           0.
     10,  0.781831503,  0.623489797,           0.
     11,  0.433883727,   0.90096885,           0.
     12,           0.,           1.,           0.
     13, -0.974927902, -0.222520933,           0.
     14,  0.974927902,  0.222520933,           0.
     15, 0.0428815372,   0.59722513,           0.
     16, -0.258296221,  0.495231926,           0.
     17,  0.593207955, 0.0809653997,           0.
     18, -0.389048159, -0.00427543791,           0.
     19,  0.253934413, -0.145685777,           0.
     20, -0.259197384, -0.404337198,           0.
** ... 1333 like lines cut
*Element, type=FC3D8
   1,   45,   44,   63,   48,   12,   11,   30,   15
   2,   45,   48,   49,   34,   12,   15,   16,    1
   3,   50,   62,   43,   47,   17,   29,   10,   14
   4,   50,   61,   60,   52,   17,   28,   27,   19
   5,   53,   51,   64,   66,   20,   18,   31,   33
   6,   57,   53,   38,   37,   24,   20,    5,    4
   7,   49,   48,   54,   64,   16,   15,   21,   31
   8,   60,   61,   42,   41,   27,   28,    9,    8
   9,   50,   52,   54,   62,   17,   19,   21,   29
  10,   55,   51,   65,   56,   22,   18,   32,   23
  11,   50,   47,   42,   61,   17,   14,    9,   28
  12,   49,   64,   51,   55,   16,   31,   18,   22
  13,   35,   34,   49,   55,    2,    1,   16,   22
  14,   65,   57,   37,   46,   32,   24,    4,   13
  15,   52,   58,   53,   66,   19,   25,   20,   33
  16,   39,   38,   53,   58,    6,    5,   20,   25
  17,   54,   52,   66,   64,   21,   19,   33,   31
  18,   62,   54,   48,   63,   29,   21,   15,   30
  19,   36,   35,   55,   56,    3,    2,   22,   23
  20,   46,   36,   56,   65,   13,    3,   23,   32
** ... 980 like lines cut
*Nset, nset=_PickedSet2, internal, generate
    1,  1353,     1
*Elset, elset=_PickedSet2, internal, generate
    1,  1000,     1
** Section: Section-1
*Fluid Section, type=SINGLE FLUID, elset=_PickedSet2
Material-1,
*End Part
**  
**
** ASSEMBLY
**
*Assembly, name=Assembly
**  
*Instance, name=Part-1-1, part=Part-1
*End Instance
**  
*Elset, elset=__PickedSurf4_S1, internal, instance=Part-1-1, generate
  976,  1000,     1
*Surface, type=ELEMENT, name=_PickedSurf4, internal
__PickedSurf4_S1, S1
*Elset, elset=__PickedSurf5_S2, internal, instance=Part-1-1, generate
  1,  25,   1
*Surface, type=ELEMENT, name=_PickedSurf5, internal
__PickedSurf5_S2, S2
*Elset, elset=__PickedSurf6_S3, internal, instance=Part-1-1
   1,  13,  16,  19,  20,  22,  23,  24,  26,  38,  41,  44,  45,  47,  48,  49
  51,  63,  66,  69,  70,  72,  73,  74,  76,  88,  91,  94,  95,  97,  98,  99
 101, 113, 116, 119, 120, 122, 123, 124, 126, 138, 141, 144, 145, 147, 148, 149
 151, 163, 166, 169, 170, 172, 173, 174, 176, 188, 191, 194, 195, 197, 198, 199
 201, 213, 216, 219, 220, 222, 223, 224, 226, 238, 241, 244, 245, 247, 248, 249
 251, 263, 266, 269, 270, 272, 273, 274, 276, 288, 291, 294, 295, 297, 298, 299
 301, 313, 316, 319, 320, 322, 323, 324, 326, 338, 341, 344, 345, 347, 348, 349
 351, 363, 366, 369, 370, 372, 373, 374, 376, 388, 391, 394, 395, 397, 398, 399
 401, 413, 416, 419, 420, 422, 423, 424, 426, 438, 441, 444, 445, 447, 448, 449
 451, 463, 466, 469, 470, 472, 473, 474, 476, 488, 491, 494, 495, 497, 498, 499
 501, 513, 516, 519, 520, 522, 523, 524, 526, 538, 541, 544, 545, 547, 548, 549
 551, 563, 566, 569, 570, 572, 573, 574, 576, 588, 591, 594, 595, 597, 598, 599
 601, 613, 616, 619, 620, 622, 623, 624, 626, 638, 641, 644, 645, 647, 648, 649
 651, 663, 666, 669, 670, 672, 673, 674, 676, 688, 691, 694, 695, 697, 698, 699
 701, 713, 716, 719, 720, 722, 723, 724, 726, 738, 741, 744, 745, 747, 748, 749
 751, 763, 766, 769, 770, 772, 773, 774, 776, 788, 791, 794, 795, 797, 798, 799
 801, 813, 816, 819, 820, 822, 823, 824, 826, 838, 841, 844, 845, 847, 848, 849
 851, 863, 866, 869, 870, 872, 873, 874, 876, 888, 891, 894, 895, 897, 898, 899
 901, 913, 916, 919, 920, 922, 923, 924, 926, 938, 941, 944, 945, 947, 948, 949
 951, 963, 966, 969, 970, 972, 973, 974, 976, 988, 991, 994, 995, 997, 998, 999
*Elset, elset=__PickedSurf6_S6, internal, instance=Part-1-1, generate
   2,  977,   25
*Elset, elset=__PickedSurf6_S5, internal, instance=Part-1-1
   3,   6,   8,  14,  28,  31,  33,  39,  53,  56,  58,  64,  78,  81,  83,  89
 103, 106, 108, 114, 128, 131, 133, 139, 153, 156, 158, 164, 178, 181, 183, 189
 203, 206, 208, 214, 228, 231, 233, 239, 253, 256, 258, 264, 278, 281, 283, 289
 303, 306, 308, 314, 328, 331, 333, 339, 353, 356, 358, 364, 378, 381, 383, 389
 403, 406, 408, 414, 428, 431, 433, 439, 453, 456, 458, 464, 478, 481, 483, 489
 503, 506, 508, 514, 528, 531, 533, 539, 553, 556, 558, 564, 578, 581, 583, 589
 603, 606, 608, 614, 628, 631, 633, 639, 653, 656, 658, 664, 678, 681, 683, 689
 703, 706, 708, 714, 728, 731, 733, 739, 753, 756, 758, 764, 778, 781, 783, 789
 803, 806, 808, 814, 828, 831, 833, 839, 853, 856, 858, 864, 878, 881, 883, 889
 903, 906, 908, 914, 928, 931, 933, 939, 953, 956, 958, 964, 978, 981, 983, 989
*Elset, elset=__PickedSurf6_S4, internal, instance=Part-1-1, generate
  11,  986,   25
*Surface, type=ELEMENT, name=_PickedSurf6, internal
__PickedSurf6_S3, S3
__PickedSurf6_S6, S6
__PickedSurf6_S4, S4
__PickedSurf6_S5, S5
*End Assembly
** 
** MATERIALS
** 
*Material, name=Material-1
*Density
 1e-09,
*Viscosity
 1e-05,
** ----------------------------------------------------------------
** 
** STEP: Step-1
** 
*Step, name=Step-1, nlgeom=NO
*CFD, incompressible navier stokes
0.01, 0.2, 0.025, 0.45, 1
1e-10, 0.5,  , 0.5, 0.5
*Momentum Equation Solver
50, 2, 1e-05
*Pressure Equation Solver
250, 2, 1e-05
ICC, 1, 1, CG
*Transport Equation Solver
50, 2, 1e-05
** 
** BOUNDARY CONDITIONS
** 
** Name: BC-1 Type: Fluid inlet/outlet
*Fluid Boundary, type=Surface
_PickedSurf4, P, 0.
** Name: BC-2 Type: Fluid inlet/outlet
*Fluid Boundary, type=Surface
_PickedSurf5, VELZ, 1.
** Name: BC-3 Type: Fluid wall condition
*Fluid Boundary, type=Surface
_PickedSurf6, VELX, 0.
_PickedSurf6, VELY, 0.
_PickedSurf6, VELZ, 0.
** 
** OUTPUT REQUESTS
** 
*Restart, write, frequency=0
** 
** FIELD OUTPUT: F-Output-1
** 
*Output, field, variable=PRESELECT
*Output, history, frequency=0
*End Step
