*Heading
** Job name: Job-1 Model name: Model-1
** Generated by: Abaqus/CAE 6.14-4
*Preprint, echo=NO, model=NO, history=NO, contact=NO
**
** PARTS
**
*Part, name=Part-1
*Node
      1,           0.,           0.,           0.
      2,  0.100000001,           0.,           0.
      3,  0.200000003,           0.,           0.
      4,  0.300000012,           0.,           0.
      5,  0.400000006,           0.,           0.
      6,          0.5,           0.,           0.
      7,  0.600000024,           0.,           0.
      8,  0.699999988,           0.,           0.
      9,  0.800000012,           0.,           0.
     10,  0.899999976,           0.,           0.
     11,           1.,           0.,           0.
     12,           0.,  0.100000001,           0.
     13,  0.100000001,  0.100000001,           0.
     14,  0.200000003,  0.100000001,           0.
     15,  0.300000012,  0.100000001,           0.
     16,  0.400000006,  0.100000001,           0.
     17,          0.5,  0.100000001,           0.
     18,  0.600000024,  0.100000001,           0.
     19,  0.699999988,  0.100000001,           0.
     20,  0.800000012,  0.100000001,           0.
** ... 101 like lines cut
*Element, type=S4R
  1,   1,   2,  13,  12
  2,   2,   3,  14,  13
  3,   3,   4,  15,  14
  4,   4,   5,  16,  15
  5,   5,   6,  17,  16
  6,   6,   7,  18,  17
  7,   7,   8,  19,  18
  8,   8,   9,  20,  19
  9,   9,  10,  21,  20
 10,  10,  11,  22,  21
 11,  12,  13,  24,  23
 12,  13,  14,  25,  24
 13,  14,  15,  26,  25
 14,  15,  16,  27,  26
 15,  16,  17,  28,  27
 16,  17,  18,  29,  28
 17,  18,  19,  30,  29
 18,  19,  20,  31,  30
 19,  20,  21,  32,  31
 20,  21,  22,  33,  32
** ... 80 like lines cut
*Nset, nset=_PickedSet2, internal, generate
   1,  121,    1
*Elset, elset=_PickedSet2, internal, generate
   1,  100,    1
** Section: Section-1
*Shell Section, elset=_PickedSet2, material=Material-1
0.1, 5
*End Part
**  
**
** ASSEMBLY
**
*Assembly, name=Assembly
**  
*Instance, name=Part-1-1, part=Part-1
*End Instance
**  
*Nset, nset=_PickedSet4, internal, instance=Part-1-1, generate
   1,  111,   11
*Elset, elset=_PickedSet4, internal, instance=Part-1-1, generate
  1,  91,  10
*Nset, nset=_PickedSet5, internal, instance=Part-1-1, generate
  11,  121,   11
*Elset, elset=_PickedSet5, internal, instance=Part-1-1, generate
  10,  100,   10
*End Assembly
** 
** MATERIALS
** 
*Material, name=Material-1
*Elastic
200000.,0.
*Material, name=Material-2
*Elastic
1., 0.2
** 
** BOUNDARY CONDITIONS
** 
** Name: BC-1 Type: Displacement/Rotation
*Boundary
_PickedSet4, 1, 1
_PickedSet4, 2, 2
_PickedSet4, 3, 3
** ----------------------------------------------------------------
** 
** STEP: Step-1
** 
*Step, name=Step-1, nlgeom=NO
*Static
1., 1., 1e-05, 1.
** 
** BOUNDARY CONDITIONS
** 
** Name: BC-2 Type: Displacement/Rotation
*Boundary
_PickedSet5, 1, 1, 0.2
** 
** OUTPUT REQUESTS
** 
*Restart, write, frequency=0
** 
** FIELD OUTPUT: F-Output-1
** 
*Output, field, variable=PRESELECT
** 
** HISTORY OUTPUT: H-Output-1
** 
*Output, history, variable=PRESELECT
*End Step
